<?xml version="1.0" encoding="UTF-8" standalone="yes"?>
<template encoding-version="1.3">
    <description></description>
    <groupId>fd14aee6-019b-1000-3bdf-0aa3f5acd797</groupId>
    <name>working</name>
    <snippet>
        <processGroups>
            <id>68c325f8-6b46-3d72-0000-000000000000</id>
            <parentGroupId>28c52645-55a3-3649-0000-000000000000</parentGroupId>
            <position>
                <x>0.0</x>
                <y>0.0</y>
            </position>
            <versionedComponentId>68c325f8-6b46-3d72-897e-ba6559ce0675</versionedComponentId>
            <comments></comments>
            <contents>
                <connections>
                    <id>295f75c0-95da-3e6a-0000-000000000000</id>
                    <parentGroupId>68c325f8-6b46-3d72-0000-000000000000</parentGroupId>
                    <versionedComponentId>295f75c0-95da-3e6a-9615-af1a1c460c4b</versionedComponentId>
                    <backPressureDataSizeThreshold>1 GB</backPressureDataSizeThreshold>
                    <backPressureObjectThreshold>10000</backPressureObjectThreshold>
                    <destination>
                        <groupId>fd46e719-67a4-3b98-0000-000000000000</groupId>
                        <id>676ef0b3-b1c0-3b8f-0000-000000000000</id>
                        <type>INPUT_PORT</type>
                        <versionedComponentId>ef8936ea-63a7-338d-8b1c-5d9d75c76a5a</versionedComponentId>
                    </destination>
                    <flowFileExpiration>0 sec</flowFileExpiration>
                    <labelIndex>1</labelIndex>
                    <loadBalanceCompression>DO_NOT_COMPRESS</loadBalanceCompression>
                    <loadBalancePartitionAttribute></loadBalancePartitionAttribute>
                    <loadBalanceStatus>LOAD_BALANCE_NOT_CONFIGURED</loadBalanceStatus>
                    <loadBalanceStrategy>DO_NOT_LOAD_BALANCE</loadBalanceStrategy>
                    <name></name>
                    <selectedRelationships>ztdf</selectedRelationships>
                    <source>
                        <groupId>68c325f8-6b46-3d72-0000-000000000000</groupId>
                        <id>ade07be9-021a-3c16-0000-000000000000</id>
                        <type>PROCESSOR</type>
                        <versionedComponentId>ade07be9-021a-3c16-9896-95aae834ab6f</versionedComponentId>
                    </source>
                    <zIndex>0</zIndex>
                </connections>
                <connections>
                    <id>53116d13-c159-36d8-0000-000000000000</id>
                    <parentGroupId>68c325f8-6b46-3d72-0000-000000000000</parentGroupId>
                    <versionedComponentId>781afd92-606d-3be7-9b09-901bbeff78cc</versionedComponentId>
                    <backPressureDataSizeThreshold>1 GB</backPressureDataSizeThreshold>
                    <backPressureObjectThreshold>10000</backPressureObjectThreshold>
                    <destination>
                        <groupId>b2fe307e-648c-388f-0000-000000000000</groupId>
                        <id>caf2c549-76de-3664-0000-000000000000</id>
                        <type>INPUT_PORT</type>
                        <versionedComponentId>bb38a97e-03f7-3c04-9946-9919c0a2e473</versionedComponentId>
                    </destination>
                    <flowFileExpiration>0 sec</flowFileExpiration>
                    <labelIndex>1</labelIndex>
                    <loadBalanceCompression>DO_NOT_COMPRESS</loadBalanceCompression>
                    <loadBalancePartitionAttribute></loadBalancePartitionAttribute>
                    <loadBalanceStatus>LOAD_BALANCE_NOT_CONFIGURED</loadBalanceStatus>
                    <loadBalanceStrategy>DO_NOT_LOAD_BALANCE</loadBalanceStrategy>
                    <name></name>
                    <source>
                        <groupId>fd46e719-67a4-3b98-0000-000000000000</groupId>
                        <id>44cf8668-80b9-3ed1-0000-000000000000</id>
                        <type>OUTPUT_PORT</type>
                        <versionedComponentId>2c9bfdf9-9938-368e-ad8d-22529b66854a</versionedComponentId>
                    </source>
                    <zIndex>0</zIndex>
                </connections>
                <connections>
                    <id>8a195e41-8125-376d-0000-000000000000</id>
                    <parentGroupId>68c325f8-6b46-3d72-0000-000000000000</parentGroupId>
                    <versionedComponentId>8a195e41-8125-376d-8403-ab51e9748d59</versionedComponentId>
                    <backPressureDataSizeThreshold>1 GB</backPressureDataSizeThreshold>
                    <backPressureObjectThreshold>10000</backPressureObjectThreshold>
                    <destination>
                        <groupId>68c325f8-6b46-3d72-0000-000000000000</groupId>
                        <id>ade07be9-021a-3c16-0000-000000000000</id>
                        <type>PROCESSOR</type>
                        <versionedComponentId>ade07be9-021a-3c16-9896-95aae834ab6f</versionedComponentId>
                    </destination>
                    <flowFileExpiration>0 sec</flowFileExpiration>
                    <labelIndex>1</labelIndex>
                    <loadBalanceCompression>DO_NOT_COMPRESS</loadBalanceCompression>
                    <loadBalancePartitionAttribute></loadBalancePartitionAttribute>
                    <loadBalanceStatus>LOAD_BALANCE_NOT_CONFIGURED</loadBalanceStatus>
                    <loadBalanceStrategy>DO_NOT_LOAD_BALANCE</loadBalanceStrategy>
                    <name></name>
                    <source>
                        <groupId>64424693-ef55-3d41-0000-000000000000</groupId>
                        <id>6706776c-c70a-361a-0000-000000000000</id>
                        <type>OUTPUT_PORT</type>
                        <versionedComponentId>bb480197-fd42-34be-b3e8-6adbd589d43e</versionedComponentId>
                    </source>
                    <zIndex>0</zIndex>
                </connections>
                <connections>
                    <id>b5d45b80-62fd-3ed7-0000-000000000000</id>
                    <parentGroupId>68c325f8-6b46-3d72-0000-000000000000</parentGroupId>
                    <versionedComponentId>a4f74e6e-f907-3882-913a-5d775c2fc9a9</versionedComponentId>
                    <backPressureDataSizeThreshold>1 GB</backPressureDataSizeThreshold>
                    <backPressureObjectThreshold>10000</backPressureObjectThreshold>
                    <destination>
                        <groupId>b2fe307e-648c-388f-0000-000000000000</groupId>
                        <id>caf2c549-76de-3664-0000-000000000000</id>
                        <type>INPUT_PORT</type>
                        <versionedComponentId>bb38a97e-03f7-3c04-9946-9919c0a2e473</versionedComponentId>
                    </destination>
                    <flowFileExpiration>0 sec</flowFileExpiration>
                    <labelIndex>1</labelIndex>
                    <loadBalanceCompression>DO_NOT_COMPRESS</loadBalanceCompression>
                    <loadBalancePartitionAttribute></loadBalancePartitionAttribute>
                    <loadBalanceStatus>LOAD_BALANCE_NOT_CONFIGURED</loadBalanceStatus>
                    <loadBalanceStrategy>DO_NOT_LOAD_BALANCE</loadBalanceStrategy>
                    <name></name>
                    <source>
                        <groupId>bee88d29-15cc-3ce0-0000-000000000000</groupId>
                        <id>a5d25cd2-d4ae-338b-0000-000000000000</id>
                        <type>OUTPUT_PORT</type>
                        <versionedComponentId>193fdd2f-5675-3d09-ba9d-d6b3ace38ed9</versionedComponentId>
                    </source>
                    <zIndex>0</zIndex>
                </connections>
                <connections>
                    <id>c45c4ae3-8c82-35fa-0000-000000000000</id>
                    <parentGroupId>68c325f8-6b46-3d72-0000-000000000000</parentGroupId>
                    <versionedComponentId>c45c4ae3-8c82-35fa-aece-1e04ad822868</versionedComponentId>
                    <backPressureDataSizeThreshold>1 GB</backPressureDataSizeThreshold>
                    <backPressureObjectThreshold>10000</backPressureObjectThreshold>
                    <destination>
                        <groupId>bee88d29-15cc-3ce0-0000-000000000000</groupId>
                        <id>0d08b735-c6b1-35fa-0000-000000000000</id>
                        <type>INPUT_PORT</type>
                        <versionedComponentId>64a56cdb-1b4b-31e5-8d68-9ca9e75d8498</versionedComponentId>
                    </destination>
                    <flowFileExpiration>0 sec</flowFileExpiration>
                    <labelIndex>1</labelIndex>
                    <loadBalanceCompression>DO_NOT_COMPRESS</loadBalanceCompression>
                    <loadBalancePartitionAttribute></loadBalancePartitionAttribute>
                    <loadBalanceStatus>LOAD_BALANCE_NOT_CONFIGURED</loadBalanceStatus>
                    <loadBalanceStrategy>DO_NOT_LOAD_BALANCE</loadBalanceStrategy>
                    <name></name>
                    <selectedRelationships>nano</selectedRelationships>
                    <source>
                        <groupId>68c325f8-6b46-3d72-0000-000000000000</groupId>
                        <id>ade07be9-021a-3c16-0000-000000000000</id>
                        <type>PROCESSOR</type>
                        <versionedComponentId>ade07be9-021a-3c16-9896-95aae834ab6f</versionedComponentId>
                    </source>
                    <zIndex>0</zIndex>
                </connections>
                <controllerServices>
                    <id>10e0c922-e46c-3596-0000-000000000000</id>
                    <parentGroupId>68c325f8-6b46-3d72-0000-000000000000</parentGroupId>
                    <versionedComponentId>0cc4234c-1000-3c87-8ff5-d494affd658e</versionedComponentId>
                    <bulletinLevel>WARN</bulletinLevel>
                    <bundle>
                        <artifact>nifi-tdf-nar</artifact>
                        <group>io.opentdf.nifi</group>
                        <version>0.4.0</version>
                    </bundle>
                    <comments></comments>
                    <descriptors>
                        <entry>
                            <key>platform-endpoint</key>
                            <value>
<name>platform-endpoint</name>
                            </value>
                        </entry>
                        <entry>
                            <key>clientId</key>
                            <value>
<name>clientId</name>
                            </value>
                        </entry>
                        <entry>
                            <key>clientSecret</key>
                            <value>
<name>clientSecret</name>
                            </value>
                        </entry>
                        <entry>
                            <key>usePlaintext</key>
                            <value>
<name>usePlaintext</name>
                            </value>
                        </entry>
                    </descriptors>
                    <name>Example DSP ControllerService</name>
                    <persistsState>false</persistsState>
                    <properties>
                        <entry>
                            <key>platform-endpoint</key>
                            <value>${TDF_FLOW_PLATFORM_ENDPOINT}</value>
                        </entry>
                        <entry>
                            <key>clientId</key>
                            <value>${TDF_FLOW_CLIENT_ID}</value>
                        </entry>
                        <entry>
                            <key>clientSecret</key>
                        </entry>
                        <entry>
                            <key>usePlaintext</key>
                            <value>false</value>
                        </entry>
                    </properties>
                    <state>ENABLED</state>
                    <type>io.opentdf.nifi.SimpleOpenTDFControllerService</type>
                </controllerServices>
                <controllerServices>
                    <id>3ed19de8-466f-3b41-0000-000000000000</id>
                    <parentGroupId>68c325f8-6b46-3d72-0000-000000000000</parentGroupId>
                    <versionedComponentId>cb1933da-9c5f-373a-b864-871b5252b3a1</versionedComponentId>
                    <bulletinLevel>WARN</bulletinLevel>
                    <bundle>
                        <artifact>nifi-record-serialization-services-nar</artifact>
                        <group>org.apache.nifi</group>
                        <version>1.25.0</version>
                    </bundle>
                    <comments></comments>
                    <descriptors>
                        <entry>
                            <key>Schema Write Strategy</key>
                            <value>
<name>Schema Write Strategy</name>
                            </value>
                        </entry>
                        <entry>
                            <key>schema-cache</key>
                            <value>
<identifiesControllerService>org.apache.nifi.serialization.RecordSchemaCacheService</identifiesControllerService>
<name>schema-cache</name>
                            </value>
                        </entry>
                        <entry>
                            <key>schema-protocol-version</key>
                            <value>
<dependencies>
    <dependentValues>hwx-schema-ref-attributes</dependentValues>
    <dependentValues>hwx-content-encoded-schema</dependentValues>
    <propertyName>Schema Write Strategy</propertyName>
</dependencies>
<name>schema-protocol-version</name>
                            </value>
                        </entry>
                        <entry>
                            <key>schema-access-strategy</key>
                            <value>
<name>schema-access-strategy</name>
                            </value>
                        </entry>
                        <entry>
                            <key>schema-registry</key>
                            <value>
<dependencies>
    <dependentValues>confluent-encoded</dependentValues>
    <dependentValues>schema-name</dependentValues>
    <dependentValues>hwx-schema-ref-attributes</dependentValues>
    <dependentValues>hwx-content-encoded-schema</dependentValues>
    <propertyName>schema-access-strategy</propertyName>
</dependencies>
<identifiesControllerService>org.apache.nifi.schemaregistry.services.SchemaRegistry</identifiesControllerService>
<name>schema-registry</name>
                            </value>
                        </entry>
                        <entry>
                            <key>schema-name</key>
                            <value>
<dependencies>
    <dependentValues>schema-name</dependentValues>
    <propertyName>schema-access-strategy</propertyName>
</dependencies>
<name>schema-name</name>
                            </value>
                        </entry>
                        <entry>
                            <key>schema-version</key>
                            <value>
<dependencies>
    <dependentValues>schema-name</dependentValues>
    <propertyName>schema-access-strategy</propertyName>
</dependencies>
<name>schema-version</name>
                            </value>
                        </entry>
                        <entry>
                            <key>schema-branch</key>
                            <value>
<dependencies>
    <dependentValues>schema-name</dependentValues>
    <propertyName>schema-access-strategy</propertyName>
</dependencies>
<name>schema-branch</name>
                            </value>
                        </entry>
                        <entry>
                            <key>schema-text</key>
                            <value>
<dependencies>
    <dependentValues>schema-text-property</dependentValues>
    <propertyName>schema-access-strategy</propertyName>
</dependencies>
<name>schema-text</name>
                            </value>
                        </entry>
                        <entry>
                            <key>Date Format</key>
                            <value>
<name>Date Format</name>
                            </value>
                        </entry>
                        <entry>
                            <key>Time Format</key>
                            <value>
<name>Time Format</name>
                            </value>
                        </entry>
                        <entry>
                            <key>Timestamp Format</key>
                            <value>
<name>Timestamp Format</name>
                            </value>
                        </entry>
                        <entry>
                            <key>Pretty Print JSON</key>
                            <value>
<name>Pretty Print JSON</name>
                            </value>
                        </entry>
                        <entry>
                            <key>suppress-nulls</key>
                            <value>
<name>suppress-nulls</name>
                            </value>
                        </entry>
                        <entry>
                            <key>output-grouping</key>
                            <value>
<name>output-grouping</name>
                            </value>
                        </entry>
                        <entry>
                            <key>compression-format</key>
                            <value>
<name>compression-format</name>
                            </value>
                        </entry>
                        <entry>
                            <key>compression-level</key>
                            <value>
<dependencies>
    <dependentValues>gzip</dependentValues>
    <propertyName>compression-format</propertyName>
</dependencies>
<name>compression-level</name>
                            </value>
                        </entry>
                    </descriptors>
                    <name>Mission JsonRecordSetWriter</name>
                    <persistsState>false</persistsState>
                    <properties>
                        <entry>
                            <key>Schema Write Strategy</key>
                            <value>no-schema</value>
                        </entry>
                        <entry>
                            <key>schema-cache</key>
                        </entry>
                        <entry>
                            <key>schema-protocol-version</key>
                            <value>1</value>
                        </entry>
                        <entry>
                            <key>schema-access-strategy</key>
                            <value>inherit-record-schema</value>
                        </entry>
                        <entry>
                            <key>schema-registry</key>
                        </entry>
                        <entry>
                            <key>schema-name</key>
                            <value>${schema.name}</value>
                        </entry>
                        <entry>
                            <key>schema-version</key>
                        </entry>
                        <entry>
                            <key>schema-branch</key>
                        </entry>
                        <entry>
                            <key>schema-text</key>
                            <value>${avro.schema}</value>
                        </entry>
                        <entry>
                            <key>Date Format</key>
                        </entry>
                        <entry>
                            <key>Time Format</key>
                        </entry>
                        <entry>
                            <key>Timestamp Format</key>
                        </entry>
                        <entry>
                            <key>Pretty Print JSON</key>
                            <value>false</value>
                        </entry>
                        <entry>
                            <key>suppress-nulls</key>
                            <value>never-suppress</value>
                        </entry>
                        <entry>
                            <key>output-grouping</key>
                            <value>output-array</value>
                        </entry>
                        <entry>
                            <key>compression-format</key>
                            <value>none</value>
                        </entry>
                        <entry>
                            <key>compression-level</key>
                            <value>1</value>
                        </entry>
                    </properties>
                    <state>ENABLED</state>
                    <type>org.apache.nifi.json.JsonRecordSetWriter</type>
                </controllerServices>
                <controllerServices>
                    <id>41a535de-5a1a-3b6b-0000-000000000000</id>
                    <parentGroupId>68c325f8-6b46-3d72-0000-000000000000</parentGroupId>
                    <versionedComponentId>996066dd-a33e-3345-b560-01872a9f0e6a</versionedComponentId>
                    <bulletinLevel>WARN</bulletinLevel>
                    <bundle>
                        <artifact>nifi-ssl-context-service-nar</artifact>
                        <group>org.apache.nifi</group>
                        <version>1.25.0</version>
                    </bundle>
                    <comments></comments>
                    <descriptors>
                        <entry>
                            <key>Keystore Filename</key>
                            <value>
<name>Keystore Filename</name>
                            </value>
                        </entry>
                        <entry>
                            <key>Keystore Password</key>
                            <value>
<name>Keystore Password</name>
                            </value>
                        </entry>
                        <entry>
                            <key>key-password</key>
                            <value>
<name>key-password</name>
                            </value>
                        </entry>
                        <entry>
                            <key>Keystore Type</key>
                            <value>
<name>Keystore Type</name>
                            </value>
                        </entry>
                        <entry>
                            <key>Truststore Filename</key>
                            <value>
<name>Truststore Filename</name>
                            </value>
                        </entry>
                        <entry>
                            <key>Truststore Password</key>
                            <value>
<name>Truststore Password</name>
                            </value>
                        </entry>
                        <entry>
                            <key>Truststore Type</key>
                            <value>
<name>Truststore Type</name>
                            </value>
                        </entry>
                        <entry>
                            <key>SSL Protocol</key>
                            <value>
<name>SSL Protocol</name>
                            </value>
                        </entry>
                    </descriptors>
                    <name>Example DSP SSLContextService</name>
                    <persistsState>false</persistsState>
                    <properties>
                        <entry>
                            <key>Keystore Filename</key>
                        </entry>
                        <entry>
                            <key>Keystore Password</key>
                        </entry>
                        <entry>
                            <key>key-password</key>
                        </entry>
                        <entry>
                            <key>Keystore Type</key>
                        </entry>
                        <entry>
                            <key>Truststore Filename</key>
                            <value>${TDF_TRUSTSTORE_FILENAME}</value>
                        </entry>
                        <entry>
                            <key>Truststore Password</key>
                        </entry>
                        <entry>
                            <key>Truststore Type</key>
                            <value>JKS</value>
                        </entry>
                        <entry>
                            <key>SSL Protocol</key>
                            <value>TLS</value>
                        </entry>
                    </properties>
                    <state>ENABLED</state>
                    <type>org.apache.nifi.ssl.StandardSSLContextService</type>
                </controllerServices>
                <labels>
                    <id>40cc2e81-ba8e-3af4-0000-000000000000</id>
                    <parentGroupId>68c325f8-6b46-3d72-0000-000000000000</parentGroupId>
                    <position>
                        <x>624.0</x>
                        <y>280.0</y>
                    </position>
                    <versionedComponentId>e6ea8aa5-209e-3111-bc1a-3f2e37b16324</versionedComponentId>
                    <height>56.0</height>
                    <label>Alternate flow, NanoTDF the content</label>
                    <style>
                        <entry>
                            <key>font-size</key>
                            <value>14px</value>
                        </entry>
                    </style>
                    <width>312.0</width>
                    <zIndex>0</zIndex>
                </labels>
                <labels>
                    <id>573f4dc2-14b9-348d-0000-000000000000</id>
                    <parentGroupId>68c325f8-6b46-3d72-0000-000000000000</parentGroupId>
                    <position>
                        <x>64.0</x>
                        <y>-128.0</y>
                    </position>
                    <versionedComponentId>9f5573d8-b68a-3e7f-9223-0102cbee8424</versionedComponentId>
                    <height>56.0</height>
                    <label>Example, loads data 
from mounted sample_data directory</label>
                    <style>
                        <entry>
                            <key>font-size</key>
                            <value>14px</value>
                        </entry>
                    </style>
                    <width>312.0</width>
                    <zIndex>0</zIndex>
                </labels>
                <processGroups>
                    <id>64424693-ef55-3d41-0000-000000000000</id>
                    <parentGroupId>68c325f8-6b46-3d72-0000-000000000000</parentGroupId>
                    <position>
                        <x>48.0</x>
                        <y>-8.0</y>
                    </position>
                    <versionedComponentId>e0e1319e-f22b-35d4-a354-f0ca42b95a5e</versionedComponentId>
                    <comments></comments>
                    <contents>
                        <connections>
                            <id>08303682-419d-3d39-0000-000000000000</id>
                            <parentGroupId>64424693-ef55-3d41-0000-000000000000</parentGroupId>
                            <versionedComponentId>ebeb7da7-9ebc-307f-9b75-fe7386f80aa2</versionedComponentId>
                            <backPressureDataSizeThreshold>1 GB</backPressureDataSizeThreshold>
                            <backPressureObjectThreshold>10000</backPressureObjectThreshold>
                            <destination>
<groupId>64424693-ef55-3d41-0000-000000000000</groupId>
<id>c9270d73-5e55-3f90-0000-000000000000</id>
<type>PROCESSOR</type>
<versionedComponentId>489a5782-0634-3d29-b27e-7f299d4ea4df</versionedComponentId>
                            </destination>
                            <flowFileExpiration>0 sec</flowFileExpiration>
                            <labelIndex>1</labelIndex>
                            <loadBalanceCompression>DO_NOT_COMPRESS</loadBalanceCompression>
                            <loadBalancePartitionAttribute></loadBalancePartitionAttribute>
                            <loadBalanceStatus>LOAD_BALANCE_NOT_CONFIGURED</loadBalanceStatus>
                            <loadBalanceStrategy>DO_NOT_LOAD_BALANCE</loadBalanceStrategy>
                            <name></name>
                            <selectedRelationships>success</selectedRelationships>
                            <source>
<groupId>64424693-ef55-3d41-0000-000000000000</groupId>
<id>d268a266-5667-3c0b-0000-000000000000</id>
<type>PROCESSOR</type>
<versionedComponentId>e9c91394-d63f-3d92-83ad-adcc37422461</versionedComponentId>
                            </source>
                            <zIndex>0</zIndex>
                        </connections>
                        <connections>
                            <id>0d1dc38b-2f40-3fec-0000-000000000000</id>
                            <parentGroupId>64424693-ef55-3d41-0000-000000000000</parentGroupId>
                            <versionedComponentId>00b94865-b0e2-31e7-bcfd-9c6ad7310499</versionedComponentId>
                            <backPressureDataSizeThreshold>1 GB</backPressureDataSizeThreshold>
                            <backPressureObjectThreshold>10000</backPressureObjectThreshold>
                            <destination>
<groupId>64424693-ef55-3d41-0000-000000000000</groupId>
<id>e976b6d0-5c78-3706-0000-000000000000</id>
<type>PROCESSOR</type>
<versionedComponentId>8c457a7d-5098-35bf-9c5a-3158d36080c9</versionedComponentId>
                            </destination>
                            <flowFileExpiration>0 sec</flowFileExpiration>
                            <labelIndex>1</labelIndex>
                            <loadBalanceCompression>DO_NOT_COMPRESS</loadBalanceCompression>